# File generated by Flopy version 3.7.0 on 08/06/2024 at 21:41:26.
BEGIN options
END options

BEGIN timing
  TDIS6  partpen.tdis
END timing

BEGIN models
  gwf6  ppw.nam  ppw
END models

BEGIN exchanges
END exchanges

BEGIN solutiongroup  1
  ims6  partpen.ims  ppw
END solutiongroup  1

