# File generated by Flopy version 3.7.0 on 08/06/2024 at 20:46:19.
BEGIN options
  TIME_UNITS  days
END options

BEGIN dimensions
  NPER  1
END dimensions

BEGIN perioddata
       1.04000000  10       1.00000000
END perioddata

