# File generated by Flopy version 3.7.0 on 08/06/2024 at 20:46:19.
BEGIN options
  PRINT_OPTION  summary
  COMPLEXITY  simple
END options

