# File generated by Flopy version 3.7.0 on 08/06/2024 at 21:41:26.
BEGIN options
END options

BEGIN griddata
  icelltype
    CONSTANT  0
  k
    CONSTANT      20.00000000
  k33
    CONSTANT      20.00000000
END griddata

