# File generated by Flopy version 3.7.0 on 08/06/2024 at 21:41:26.
BEGIN options
END options

BEGIN dimensions
  MAXBOUND  1
END dimensions

BEGIN period  1
  2 51 51 -5.80000000E+04
END period  1

