# File generated by Flopy version 3.7.0 on 08/06/2024 at 21:41:26.
BEGIN options
  BUDGET  FILEOUT  ppw.cbc
  HEAD  FILEOUT  ppw.hds
END options

BEGIN period  1
  SAVE  HEAD  ALL
  SAVE  BUDGET  ALL
  PRINT  HEAD  LAST
  PRINT  BUDGET  LAST
END period  1

