# File generated by Flopy version 3.7.0 on 08/06/2024 at 21:41:26.
BEGIN options
  SAVE_FLOWS
END options

BEGIN packages
  DIS6  ppw.dis  dis
  IC6  ppw.ic  ic
  NPF6  ppw.npf  npf
  STO6  ppw.sto  sto
  WEL6  ppw.wel  wel_0
  OC6  ppw.oc  oc
END packages

