# File generated by Flopy version 3.7.0 on 08/06/2024 at 21:20:52.
BEGIN options
END options

BEGIN timing
  TDIS6  partpen.tdis
END timing

BEGIN models
  gwf6  partpen.nam  partpen
END models

BEGIN exchanges
END exchanges

BEGIN solutiongroup  1
  ims6  partpen.ims  partpen
END solutiongroup  1

