# File generated by Flopy version 3.7.0 on 08/07/2024 at 18:33:23.
BEGIN options
END options

BEGIN dimensions
  NPER  1
END dimensions

BEGIN perioddata
       1.04000000  10       1.00000000
END perioddata

