# File generated by Flopy version 3.7.0 on 08/06/2024 at 21:20:52.
BEGIN options
END options

BEGIN griddata
  iconvert
    CONSTANT  0
  ss
    CONSTANT       0.01000000
  sy
    CONSTANT       0.00000000
END griddata

