# File generated by Flopy version 3.7.0 on 08/07/2024 at 18:33:23.
BEGIN options
END options

