# File generated by Flopy version 3.7.0 on 08/07/2024 at 18:33:23.
BEGIN options
END options

BEGIN dimensions
  MAXBOUND  1188
END dimensions

BEGIN period  1
  1 2 1 150
  1 2 101 150
  1 3 1 150
  1 3 101 150
  1 4 1 150
  1 4 101 150
  1 5 1 150
  1 5 101 150
  1 6 1 150
  1 6 101 150
  1 7 1 150
  1 7 101 150
  1 8 1 150
  1 8 101 150
  1 9 1 150
  1 9 101 150
  1 10 1 150
  1 10 101 150
  1 11 1 150
  1 11 101 150
  1 12 1 150
  1 12 101 150
  1 13 1 150
  1 13 101 150
  1 14 1 150
  1 14 101 150
  1 15 1 150
  1 15 101 150
  1 16 1 150
  1 16 101 150
  1 17 1 150
  1 17 101 150
  1 18 1 150
  1 18 101 150
  1 19 1 150
  1 19 101 150
  1 20 1 150
  1 20 101 150
  1 21 1 150
  1 21 101 150
  1 22 1 150
  1 22 101 150
  1 23 1 150
  1 23 101 150
  1 24 1 150
  1 24 101 150
  1 25 1 150
  1 25 101 150
  1 26 1 150
  1 26 101 150
  1 27 1 150
  1 27 101 150
  1 28 1 150
  1 28 101 150
  1 29 1 150
  1 29 101 150
  1 30 1 150
  1 30 101 150
  1 31 1 150
  1 31 101 150
  1 32 1 150
  1 32 101 150
  1 33 1 150
  1 33 101 150
  1 34 1 150
  1 34 101 150
  1 35 1 150
  1 35 101 150
  1 36 1 150
  1 36 101 150
  1 37 1 150
  1 37 101 150
  1 38 1 150
  1 38 101 150
  1 39 1 150
  1 39 101 150
  1 40 1 150
  1 40 101 150
  1 41 1 150
  1 41 101 150
  1 42 1 150
  1 42 101 150
  1 43 1 150
  1 43 101 150
  1 44 1 150
  1 44 101 150
  1 45 1 150
  1 45 101 150
  1 46 1 150
  1 46 101 150
  1 47 1 150
  1 47 101 150
  1 48 1 150
  1 48 101 150
  1 49 1 150
  1 49 101 150
  1 50 1 150
  1 50 101 150
  1 51 1 150
  1 51 101 150
  1 52 1 150
  1 52 101 150
  1 53 1 150
  1 53 101 150
  1 54 1 150
  1 54 101 150
  1 55 1 150
  1 55 101 150
  1 56 1 150
  1 56 101 150
  1 57 1 150
  1 57 101 150
  1 58 1 150
  1 58 101 150
  1 59 1 150
  1 59 101 150
  1 60 1 150
  1 60 101 150
  1 61 1 150
  1 61 101 150
  1 62 1 150
  1 62 101 150
  1 63 1 150
  1 63 101 150
  1 64 1 150
  1 64 101 150
  1 65 1 150
  1 65 101 150
  1 66 1 150
  1 66 101 150
  1 67 1 150
  1 67 101 150
  1 68 1 150
  1 68 101 150
  1 69 1 150
  1 69 101 150
  1 70 1 150
  1 70 101 150
  1 71 1 150
  1 71 101 150
  1 72 1 150
  1 72 101 150
  1 73 1 150
  1 73 101 150
  1 74 1 150
  1 74 101 150
  1 75 1 150
  1 75 101 150
  1 76 1 150
  1 76 101 150
  1 77 1 150
  1 77 101 150
  1 78 1 150
  1 78 101 150
  1 79 1 150
  1 79 101 150
  1 80 1 150
  1 80 101 150
  1 81 1 150
  1 81 101 150
  1 82 1 150
  1 82 101 150
  1 83 1 150
  1 83 101 150
  1 84 1 150
  1 84 101 150
  1 85 1 150
  1 85 101 150
  1 86 1 150
  1 86 101 150
  1 87 1 150
  1 87 101 150
  1 88 1 150
  1 88 101 150
  1 89 1 150
  1 89 101 150
  1 90 1 150
  1 90 101 150
  1 91 1 150
  1 91 101 150
  1 92 1 150
  1 92 101 150
  1 93 1 150
  1 93 101 150
  1 94 1 150
  1 94 101 150
  1 95 1 150
  1 95 101 150
  1 96 1 150
  1 96 101 150
  1 97 1 150
  1 97 101 150
  1 98 1 150
  1 98 101 150
  1 99 1 150
  1 99 101 150
  1 100 1 150
  1 100 101 150
  1 1 2 150
  1 101 2 150
  1 1 3 150
  1 101 3 150
  1 1 4 150
  1 101 4 150
  1 1 5 150
  1 101 5 150
  1 1 6 150
  1 101 6 150
  1 1 7 150
  1 101 7 150
  1 1 8 150
  1 101 8 150
  1 1 9 150
  1 101 9 150
  1 1 10 150
  1 101 10 150
  1 1 11 150
  1 101 11 150
  1 1 12 150
  1 101 12 150
  1 1 13 150
  1 101 13 150
  1 1 14 150
  1 101 14 150
  1 1 15 150
  1 101 15 150
  1 1 16 150
  1 101 16 150
  1 1 17 150
  1 101 17 150
  1 1 18 150
  1 101 18 150
  1 1 19 150
  1 101 19 150
  1 1 20 150
  1 101 20 150
  1 1 21 150
  1 101 21 150
  1 1 22 150
  1 101 22 150
  1 1 23 150
  1 101 23 150
  1 1 24 150
  1 101 24 150
  1 1 25 150
  1 101 25 150
  1 1 26 150
  1 101 26 150
  1 1 27 150
  1 101 27 150
  1 1 28 150
  1 101 28 150
  1 1 29 150
  1 101 29 150
  1 1 30 150
  1 101 30 150
  1 1 31 150
  1 101 31 150
  1 1 32 150
  1 101 32 150
  1 1 33 150
  1 101 33 150
  1 1 34 150
  1 101 34 150
  1 1 35 150
  1 101 35 150
  1 1 36 150
  1 101 36 150
  1 1 37 150
  1 101 37 150
  1 1 38 150
  1 101 38 150
  1 1 39 150
  1 101 39 150
  1 1 40 150
  1 101 40 150
  1 1 41 150
  1 101 41 150
  1 1 42 150
  1 101 42 150
  1 1 43 150
  1 101 43 150
  1 1 44 150
  1 101 44 150
  1 1 45 150
  1 101 45 150
  1 1 46 150
  1 101 46 150
  1 1 47 150
  1 101 47 150
  1 1 48 150
  1 101 48 150
  1 1 49 150
  1 101 49 150
  1 1 50 150
  1 101 50 150
  1 1 51 150
  1 101 51 150
  1 1 52 150
  1 101 52 150
  1 1 53 150
  1 101 53 150
  1 1 54 150
  1 101 54 150
  1 1 55 150
  1 101 55 150
  1 1 56 150
  1 101 56 150
  1 1 57 150
  1 101 57 150
  1 1 58 150
  1 101 58 150
  1 1 59 150
  1 101 59 150
  1 1 60 150
  1 101 60 150
  1 1 61 150
  1 101 61 150
  1 1 62 150
  1 101 62 150
  1 1 63 150
  1 101 63 150
  1 1 64 150
  1 101 64 150
  1 1 65 150
  1 101 65 150
  1 1 66 150
  1 101 66 150
  1 1 67 150
  1 101 67 150
  1 1 68 150
  1 101 68 150
  1 1 69 150
  1 101 69 150
  1 1 70 150
  1 101 70 150
  1 1 71 150
  1 101 71 150
  1 1 72 150
  1 101 72 150
  1 1 73 150
  1 101 73 150
  1 1 74 150
  1 101 74 150
  1 1 75 150
  1 101 75 150
  1 1 76 150
  1 101 76 150
  1 1 77 150
  1 101 77 150
  1 1 78 150
  1 101 78 150
  1 1 79 150
  1 101 79 150
  1 1 80 150
  1 101 80 150
  1 1 81 150
  1 101 81 150
  1 1 82 150
  1 101 82 150
  1 1 83 150
  1 101 83 150
  1 1 84 150
  1 101 84 150
  1 1 85 150
  1 101 85 150
  1 1 86 150
  1 101 86 150
  1 1 87 150
  1 101 87 150
  1 1 88 150
  1 101 88 150
  1 1 89 150
  1 101 89 150
  1 1 90 150
  1 101 90 150
  1 1 91 150
  1 101 91 150
  1 1 92 150
  1 101 92 150
  1 1 93 150
  1 101 93 150
  1 1 94 150
  1 101 94 150
  1 1 95 150
  1 101 95 150
  1 1 96 150
  1 101 96 150
  1 1 97 150
  1 101 97 150
  1 1 98 150
  1 101 98 150
  1 1 99 150
  1 101 99 150
  1 1 100 150
  1 101 100 150
  2 2 1 150
  2 2 101 150
  2 3 1 150
  2 3 101 150
  2 4 1 150
  2 4 101 150
  2 5 1 150
  2 5 101 150
  2 6 1 150
  2 6 101 150
  2 7 1 150
  2 7 101 150
  2 8 1 150
  2 8 101 150
  2 9 1 150
  2 9 101 150
  2 10 1 150
  2 10 101 150
  2 11 1 150
  2 11 101 150
  2 12 1 150
  2 12 101 150
  2 13 1 150
  2 13 101 150
  2 14 1 150
  2 14 101 150
  2 15 1 150
  2 15 101 150
  2 16 1 150
  2 16 101 150
  2 17 1 150
  2 17 101 150
  2 18 1 150
  2 18 101 150
  2 19 1 150
  2 19 101 150
  2 20 1 150
  2 20 101 150
  2 21 1 150
  2 21 101 150
  2 22 1 150
  2 22 101 150
  2 23 1 150
  2 23 101 150
  2 24 1 150
  2 24 101 150
  2 25 1 150
  2 25 101 150
  2 26 1 150
  2 26 101 150
  2 27 1 150
  2 27 101 150
  2 28 1 150
  2 28 101 150
  2 29 1 150
  2 29 101 150
  2 30 1 150
  2 30 101 150
  2 31 1 150
  2 31 101 150
  2 32 1 150
  2 32 101 150
  2 33 1 150
  2 33 101 150
  2 34 1 150
  2 34 101 150
  2 35 1 150
  2 35 101 150
  2 36 1 150
  2 36 101 150
  2 37 1 150
  2 37 101 150
  2 38 1 150
  2 38 101 150
  2 39 1 150
  2 39 101 150
  2 40 1 150
  2 40 101 150
  2 41 1 150
  2 41 101 150
  2 42 1 150
  2 42 101 150
  2 43 1 150
  2 43 101 150
  2 44 1 150
  2 44 101 150
  2 45 1 150
  2 45 101 150
  2 46 1 150
  2 46 101 150
  2 47 1 150
  2 47 101 150
  2 48 1 150
  2 48 101 150
  2 49 1 150
  2 49 101 150
  2 50 1 150
  2 50 101 150
  2 51 1 150
  2 51 101 150
  2 52 1 150
  2 52 101 150
  2 53 1 150
  2 53 101 150
  2 54 1 150
  2 54 101 150
  2 55 1 150
  2 55 101 150
  2 56 1 150
  2 56 101 150
  2 57 1 150
  2 57 101 150
  2 58 1 150
  2 58 101 150
  2 59 1 150
  2 59 101 150
  2 60 1 150
  2 60 101 150
  2 61 1 150
  2 61 101 150
  2 62 1 150
  2 62 101 150
  2 63 1 150
  2 63 101 150
  2 64 1 150
  2 64 101 150
  2 65 1 150
  2 65 101 150
  2 66 1 150
  2 66 101 150
  2 67 1 150
  2 67 101 150
  2 68 1 150
  2 68 101 150
  2 69 1 150
  2 69 101 150
  2 70 1 150
  2 70 101 150
  2 71 1 150
  2 71 101 150
  2 72 1 150
  2 72 101 150
  2 73 1 150
  2 73 101 150
  2 74 1 150
  2 74 101 150
  2 75 1 150
  2 75 101 150
  2 76 1 150
  2 76 101 150
  2 77 1 150
  2 77 101 150
  2 78 1 150
  2 78 101 150
  2 79 1 150
  2 79 101 150
  2 80 1 150
  2 80 101 150
  2 81 1 150
  2 81 101 150
  2 82 1 150
  2 82 101 150
  2 83 1 150
  2 83 101 150
  2 84 1 150
  2 84 101 150
  2 85 1 150
  2 85 101 150
  2 86 1 150
  2 86 101 150
  2 87 1 150
  2 87 101 150
  2 88 1 150
  2 88 101 150
  2 89 1 150
  2 89 101 150
  2 90 1 150
  2 90 101 150
  2 91 1 150
  2 91 101 150
  2 92 1 150
  2 92 101 150
  2 93 1 150
  2 93 101 150
  2 94 1 150
  2 94 101 150
  2 95 1 150
  2 95 101 150
  2 96 1 150
  2 96 101 150
  2 97 1 150
  2 97 101 150
  2 98 1 150
  2 98 101 150
  2 99 1 150
  2 99 101 150
  2 100 1 150
  2 100 101 150
  2 1 2 150
  2 101 2 150
  2 1 3 150
  2 101 3 150
  2 1 4 150
  2 101 4 150
  2 1 5 150
  2 101 5 150
  2 1 6 150
  2 101 6 150
  2 1 7 150
  2 101 7 150
  2 1 8 150
  2 101 8 150
  2 1 9 150
  2 101 9 150
  2 1 10 150
  2 101 10 150
  2 1 11 150
  2 101 11 150
  2 1 12 150
  2 101 12 150
  2 1 13 150
  2 101 13 150
  2 1 14 150
  2 101 14 150
  2 1 15 150
  2 101 15 150
  2 1 16 150
  2 101 16 150
  2 1 17 150
  2 101 17 150
  2 1 18 150
  2 101 18 150
  2 1 19 150
  2 101 19 150
  2 1 20 150
  2 101 20 150
  2 1 21 150
  2 101 21 150
  2 1 22 150
  2 101 22 150
  2 1 23 150
  2 101 23 150
  2 1 24 150
  2 101 24 150
  2 1 25 150
  2 101 25 150
  2 1 26 150
  2 101 26 150
  2 1 27 150
  2 101 27 150
  2 1 28 150
  2 101 28 150
  2 1 29 150
  2 101 29 150
  2 1 30 150
  2 101 30 150
  2 1 31 150
  2 101 31 150
  2 1 32 150
  2 101 32 150
  2 1 33 150
  2 101 33 150
  2 1 34 150
  2 101 34 150
  2 1 35 150
  2 101 35 150
  2 1 36 150
  2 101 36 150
  2 1 37 150
  2 101 37 150
  2 1 38 150
  2 101 38 150
  2 1 39 150
  2 101 39 150
  2 1 40 150
  2 101 40 150
  2 1 41 150
  2 101 41 150
  2 1 42 150
  2 101 42 150
  2 1 43 150
  2 101 43 150
  2 1 44 150
  2 101 44 150
  2 1 45 150
  2 101 45 150
  2 1 46 150
  2 101 46 150
  2 1 47 150
  2 101 47 150
  2 1 48 150
  2 101 48 150
  2 1 49 150
  2 101 49 150
  2 1 50 150
  2 101 50 150
  2 1 51 150
  2 101 51 150
  2 1 52 150
  2 101 52 150
  2 1 53 150
  2 101 53 150
  2 1 54 150
  2 101 54 150
  2 1 55 150
  2 101 55 150
  2 1 56 150
  2 101 56 150
  2 1 57 150
  2 101 57 150
  2 1 58 150
  2 101 58 150
  2 1 59 150
  2 101 59 150
  2 1 60 150
  2 101 60 150
  2 1 61 150
  2 101 61 150
  2 1 62 150
  2 101 62 150
  2 1 63 150
  2 101 63 150
  2 1 64 150
  2 101 64 150
  2 1 65 150
  2 101 65 150
  2 1 66 150
  2 101 66 150
  2 1 67 150
  2 101 67 150
  2 1 68 150
  2 101 68 150
  2 1 69 150
  2 101 69 150
  2 1 70 150
  2 101 70 150
  2 1 71 150
  2 101 71 150
  2 1 72 150
  2 101 72 150
  2 1 73 150
  2 101 73 150
  2 1 74 150
  2 101 74 150
  2 1 75 150
  2 101 75 150
  2 1 76 150
  2 101 76 150
  2 1 77 150
  2 101 77 150
  2 1 78 150
  2 101 78 150
  2 1 79 150
  2 101 79 150
  2 1 80 150
  2 101 80 150
  2 1 81 150
  2 101 81 150
  2 1 82 150
  2 101 82 150
  2 1 83 150
  2 101 83 150
  2 1 84 150
  2 101 84 150
  2 1 85 150
  2 101 85 150
  2 1 86 150
  2 101 86 150
  2 1 87 150
  2 101 87 150
  2 1 88 150
  2 101 88 150
  2 1 89 150
  2 101 89 150
  2 1 90 150
  2 101 90 150
  2 1 91 150
  2 101 91 150
  2 1 92 150
  2 101 92 150
  2 1 93 150
  2 101 93 150
  2 1 94 150
  2 101 94 150
  2 1 95 150
  2 101 95 150
  2 1 96 150
  2 101 96 150
  2 1 97 150
  2 101 97 150
  2 1 98 150
  2 101 98 150
  2 1 99 150
  2 101 99 150
  2 1 100 150
  2 101 100 150
  3 2 1 150
  3 2 101 150
  3 3 1 150
  3 3 101 150
  3 4 1 150
  3 4 101 150
  3 5 1 150
  3 5 101 150
  3 6 1 150
  3 6 101 150
  3 7 1 150
  3 7 101 150
  3 8 1 150
  3 8 101 150
  3 9 1 150
  3 9 101 150
  3 10 1 150
  3 10 101 150
  3 11 1 150
  3 11 101 150
  3 12 1 150
  3 12 101 150
  3 13 1 150
  3 13 101 150
  3 14 1 150
  3 14 101 150
  3 15 1 150
  3 15 101 150
  3 16 1 150
  3 16 101 150
  3 17 1 150
  3 17 101 150
  3 18 1 150
  3 18 101 150
  3 19 1 150
  3 19 101 150
  3 20 1 150
  3 20 101 150
  3 21 1 150
  3 21 101 150
  3 22 1 150
  3 22 101 150
  3 23 1 150
  3 23 101 150
  3 24 1 150
  3 24 101 150
  3 25 1 150
  3 25 101 150
  3 26 1 150
  3 26 101 150
  3 27 1 150
  3 27 101 150
  3 28 1 150
  3 28 101 150
  3 29 1 150
  3 29 101 150
  3 30 1 150
  3 30 101 150
  3 31 1 150
  3 31 101 150
  3 32 1 150
  3 32 101 150
  3 33 1 150
  3 33 101 150
  3 34 1 150
  3 34 101 150
  3 35 1 150
  3 35 101 150
  3 36 1 150
  3 36 101 150
  3 37 1 150
  3 37 101 150
  3 38 1 150
  3 38 101 150
  3 39 1 150
  3 39 101 150
  3 40 1 150
  3 40 101 150
  3 41 1 150
  3 41 101 150
  3 42 1 150
  3 42 101 150
  3 43 1 150
  3 43 101 150
  3 44 1 150
  3 44 101 150
  3 45 1 150
  3 45 101 150
  3 46 1 150
  3 46 101 150
  3 47 1 150
  3 47 101 150
  3 48 1 150
  3 48 101 150
  3 49 1 150
  3 49 101 150
  3 50 1 150
  3 50 101 150
  3 51 1 150
  3 51 101 150
  3 52 1 150
  3 52 101 150
  3 53 1 150
  3 53 101 150
  3 54 1 150
  3 54 101 150
  3 55 1 150
  3 55 101 150
  3 56 1 150
  3 56 101 150
  3 57 1 150
  3 57 101 150
  3 58 1 150
  3 58 101 150
  3 59 1 150
  3 59 101 150
  3 60 1 150
  3 60 101 150
  3 61 1 150
  3 61 101 150
  3 62 1 150
  3 62 101 150
  3 63 1 150
  3 63 101 150
  3 64 1 150
  3 64 101 150
  3 65 1 150
  3 65 101 150
  3 66 1 150
  3 66 101 150
  3 67 1 150
  3 67 101 150
  3 68 1 150
  3 68 101 150
  3 69 1 150
  3 69 101 150
  3 70 1 150
  3 70 101 150
  3 71 1 150
  3 71 101 150
  3 72 1 150
  3 72 101 150
  3 73 1 150
  3 73 101 150
  3 74 1 150
  3 74 101 150
  3 75 1 150
  3 75 101 150
  3 76 1 150
  3 76 101 150
  3 77 1 150
  3 77 101 150
  3 78 1 150
  3 78 101 150
  3 79 1 150
  3 79 101 150
  3 80 1 150
  3 80 101 150
  3 81 1 150
  3 81 101 150
  3 82 1 150
  3 82 101 150
  3 83 1 150
  3 83 101 150
  3 84 1 150
  3 84 101 150
  3 85 1 150
  3 85 101 150
  3 86 1 150
  3 86 101 150
  3 87 1 150
  3 87 101 150
  3 88 1 150
  3 88 101 150
  3 89 1 150
  3 89 101 150
  3 90 1 150
  3 90 101 150
  3 91 1 150
  3 91 101 150
  3 92 1 150
  3 92 101 150
  3 93 1 150
  3 93 101 150
  3 94 1 150
  3 94 101 150
  3 95 1 150
  3 95 101 150
  3 96 1 150
  3 96 101 150
  3 97 1 150
  3 97 101 150
  3 98 1 150
  3 98 101 150
  3 99 1 150
  3 99 101 150
  3 100 1 150
  3 100 101 150
  3 1 2 150
  3 101 2 150
  3 1 3 150
  3 101 3 150
  3 1 4 150
  3 101 4 150
  3 1 5 150
  3 101 5 150
  3 1 6 150
  3 101 6 150
  3 1 7 150
  3 101 7 150
  3 1 8 150
  3 101 8 150
  3 1 9 150
  3 101 9 150
  3 1 10 150
  3 101 10 150
  3 1 11 150
  3 101 11 150
  3 1 12 150
  3 101 12 150
  3 1 13 150
  3 101 13 150
  3 1 14 150
  3 101 14 150
  3 1 15 150
  3 101 15 150
  3 1 16 150
  3 101 16 150
  3 1 17 150
  3 101 17 150
  3 1 18 150
  3 101 18 150
  3 1 19 150
  3 101 19 150
  3 1 20 150
  3 101 20 150
  3 1 21 150
  3 101 21 150
  3 1 22 150
  3 101 22 150
  3 1 23 150
  3 101 23 150
  3 1 24 150
  3 101 24 150
  3 1 25 150
  3 101 25 150
  3 1 26 150
  3 101 26 150
  3 1 27 150
  3 101 27 150
  3 1 28 150
  3 101 28 150
  3 1 29 150
  3 101 29 150
  3 1 30 150
  3 101 30 150
  3 1 31 150
  3 101 31 150
  3 1 32 150
  3 101 32 150
  3 1 33 150
  3 101 33 150
  3 1 34 150
  3 101 34 150
  3 1 35 150
  3 101 35 150
  3 1 36 150
  3 101 36 150
  3 1 37 150
  3 101 37 150
  3 1 38 150
  3 101 38 150
  3 1 39 150
  3 101 39 150
  3 1 40 150
  3 101 40 150
  3 1 41 150
  3 101 41 150
  3 1 42 150
  3 101 42 150
  3 1 43 150
  3 101 43 150
  3 1 44 150
  3 101 44 150
  3 1 45 150
  3 101 45 150
  3 1 46 150
  3 101 46 150
  3 1 47 150
  3 101 47 150
  3 1 48 150
  3 101 48 150
  3 1 49 150
  3 101 49 150
  3 1 50 150
  3 101 50 150
  3 1 51 150
  3 101 51 150
  3 1 52 150
  3 101 52 150
  3 1 53 150
  3 101 53 150
  3 1 54 150
  3 101 54 150
  3 1 55 150
  3 101 55 150
  3 1 56 150
  3 101 56 150
  3 1 57 150
  3 101 57 150
  3 1 58 150
  3 101 58 150
  3 1 59 150
  3 101 59 150
  3 1 60 150
  3 101 60 150
  3 1 61 150
  3 101 61 150
  3 1 62 150
  3 101 62 150
  3 1 63 150
  3 101 63 150
  3 1 64 150
  3 101 64 150
  3 1 65 150
  3 101 65 150
  3 1 66 150
  3 101 66 150
  3 1 67 150
  3 101 67 150
  3 1 68 150
  3 101 68 150
  3 1 69 150
  3 101 69 150
  3 1 70 150
  3 101 70 150
  3 1 71 150
  3 101 71 150
  3 1 72 150
  3 101 72 150
  3 1 73 150
  3 101 73 150
  3 1 74 150
  3 101 74 150
  3 1 75 150
  3 101 75 150
  3 1 76 150
  3 101 76 150
  3 1 77 150
  3 101 77 150
  3 1 78 150
  3 101 78 150
  3 1 79 150
  3 101 79 150
  3 1 80 150
  3 101 80 150
  3 1 81 150
  3 101 81 150
  3 1 82 150
  3 101 82 150
  3 1 83 150
  3 101 83 150
  3 1 84 150
  3 101 84 150
  3 1 85 150
  3 101 85 150
  3 1 86 150
  3 101 86 150
  3 1 87 150
  3 101 87 150
  3 1 88 150
  3 101 88 150
  3 1 89 150
  3 101 89 150
  3 1 90 150
  3 101 90 150
  3 1 91 150
  3 101 91 150
  3 1 92 150
  3 101 92 150
  3 1 93 150
  3 101 93 150
  3 1 94 150
  3 101 94 150
  3 1 95 150
  3 101 95 150
  3 1 96 150
  3 101 96 150
  3 1 97 150
  3 101 97 150
  3 1 98 150
  3 101 98 150
  3 1 99 150
  3 101 99 150
  3 1 100 150
  3 101 100 150
END period  1

