# File generated by Flopy version 3.7.0 on 08/06/2024 at 21:20:52.
BEGIN options
  BUDGET  FILEOUT  partpen.cbc
  HEAD  FILEOUT  partpen.hds
END options

BEGIN period  1
  SAVE  HEAD  ALL
  SAVE  BUDGET  ALL
END period  1

