# File generated by Flopy version 3.7.0 on 08/07/2024 at 18:33:23.
BEGIN options
END options

BEGIN dimensions
  MAXBOUND  1
END dimensions

BEGIN period  1
  2 51 51 -58000
END period  1

