# File generated by Flopy version 3.7.0 on 08/06/2024 at 21:20:52.
BEGIN options
  SAVE_FLOWS
END options

BEGIN packages
  DIS6  partpen.dis  dis
  IC6  partpen.ic  ic
  NPF6  partpen.npf  npf
  STO6  partpen.sto  sto
  WEL6  partpen.wel  wel_0
  CHD6  partpen.chd  chd_0
  OC6  partpen.oc  oc
END packages

