# File generated by Flopy version 3.7.0 on 08/06/2024 at 21:20:52.
BEGIN options
END options

