# File generated by Flopy version 3.7.0 on 08/07/2024 at 18:33:23.
BEGIN options
END options

BEGIN dimensions
  NLAY  3
  NROW  101
  NCOL  101
END dimensions

BEGIN griddata
  delr
    CONSTANT      10.00000000
  delc
    CONSTANT      10.00000000
  top
    CONSTANT     100.00000000
  botm  LAYERED
    CONSTANT      70.00000000
    CONSTANT      60.00000000
    CONSTANT       0.00000000
END griddata

