# File generated by Flopy version 3.7.0 on 08/06/2024 at 20:22:09.
BEGIN options
  BUDGET  FILEOUT  confined_aquifer.cbc
  HEAD  FILEOUT  confined_aquifer.hds
END options

BEGIN period  1
  SAVE  HEAD  ALL
  SAVE  BUDGET  ALL
END period  1

