# File generated by Flopy version 3.7.0 on 08/06/2024 at 20:31:50.
BEGIN options
  SAVE_FLOWS
END options

BEGIN packages
  IC6  confined_aquifer.ic  ic
  DIS6  confined_aquifer.dis  dis
  NPF6  confined_aquifer.npf  npf
  STO6  confined_aquifer.sto  sto
  CHD6  confined_aquifer.chd  chd_0
  WEL6  confined_aquifer.wel  wel_0
  OBS6  confined_aquifer.obs  obs_0
END packages

