# File generated by Flopy version 3.7.0 on 08/06/2024 at 20:22:09.
BEGIN options
  PRINT_OPTION  summary
END options

BEGIN nonlinear
  OUTER_DVCLOSE  1.00000000E-04
  OUTER_MAXIMUM  500
END nonlinear

BEGIN linear
  INNER_MAXIMUM  100
  INNER_DVCLOSE  1.00000000E-04
  inner_rclose       0.00100000
END linear

