# File generated by Flopy version 3.7.0 on 08/06/2024 at 20:31:50.
BEGIN options
END options

BEGIN dimensions
  NLAY  1
  NROW  201
  NCOL  201
END dimensions

BEGIN griddata
  delr
    CONSTANT     200.00000000
  delc
    CONSTANT     200.00000000
  top
    CONSTANT      83.00000000
  botm
    CONSTANT      20.00000000
END griddata

