# File generated by Flopy version 3.7.0 on 08/06/2024 at 20:31:50.
BEGIN options
END options

BEGIN dimensions
  MAXBOUND  1
END dimensions

BEGIN period  2
  1 101 11 -6.68470000E+03
END period  2

