# File generated by Flopy version 3.7.0 on 08/06/2024 at 20:31:50.
BEGIN options
END options

BEGIN continuous  FILEOUT  head_obs.csv
  obs1  HEAD  1 101 7
END continuous  FILEOUT  head_obs.csv

