# File generated by Flopy version 3.7.0 on 08/06/2024 at 20:31:50.
BEGIN options
END options

BEGIN dimensions
  MAXBOUND  201
END dimensions

BEGIN period  1
  1 1 1 1.40000000E+02
  1 2 1 1.40000000E+02
  1 3 1 1.40000000E+02
  1 4 1 1.40000000E+02
  1 5 1 1.40000000E+02
  1 6 1 1.40000000E+02
  1 7 1 1.40000000E+02
  1 8 1 1.40000000E+02
  1 9 1 1.40000000E+02
  1 10 1 1.40000000E+02
  1 11 1 1.40000000E+02
  1 12 1 1.40000000E+02
  1 13 1 1.40000000E+02
  1 14 1 1.40000000E+02
  1 15 1 1.40000000E+02
  1 16 1 1.40000000E+02
  1 17 1 1.40000000E+02
  1 18 1 1.40000000E+02
  1 19 1 1.40000000E+02
  1 20 1 1.40000000E+02
  1 21 1 1.40000000E+02
  1 22 1 1.40000000E+02
  1 23 1 1.40000000E+02
  1 24 1 1.40000000E+02
  1 25 1 1.40000000E+02
  1 26 1 1.40000000E+02
  1 27 1 1.40000000E+02
  1 28 1 1.40000000E+02
  1 29 1 1.40000000E+02
  1 30 1 1.40000000E+02
  1 31 1 1.40000000E+02
  1 32 1 1.40000000E+02
  1 33 1 1.40000000E+02
  1 34 1 1.40000000E+02
  1 35 1 1.40000000E+02
  1 36 1 1.40000000E+02
  1 37 1 1.40000000E+02
  1 38 1 1.40000000E+02
  1 39 1 1.40000000E+02
  1 40 1 1.40000000E+02
  1 41 1 1.40000000E+02
  1 42 1 1.40000000E+02
  1 43 1 1.40000000E+02
  1 44 1 1.40000000E+02
  1 45 1 1.40000000E+02
  1 46 1 1.40000000E+02
  1 47 1 1.40000000E+02
  1 48 1 1.40000000E+02
  1 49 1 1.40000000E+02
  1 50 1 1.40000000E+02
  1 51 1 1.40000000E+02
  1 52 1 1.40000000E+02
  1 53 1 1.40000000E+02
  1 54 1 1.40000000E+02
  1 55 1 1.40000000E+02
  1 56 1 1.40000000E+02
  1 57 1 1.40000000E+02
  1 58 1 1.40000000E+02
  1 59 1 1.40000000E+02
  1 60 1 1.40000000E+02
  1 61 1 1.40000000E+02
  1 62 1 1.40000000E+02
  1 63 1 1.40000000E+02
  1 64 1 1.40000000E+02
  1 65 1 1.40000000E+02
  1 66 1 1.40000000E+02
  1 67 1 1.40000000E+02
  1 68 1 1.40000000E+02
  1 69 1 1.40000000E+02
  1 70 1 1.40000000E+02
  1 71 1 1.40000000E+02
  1 72 1 1.40000000E+02
  1 73 1 1.40000000E+02
  1 74 1 1.40000000E+02
  1 75 1 1.40000000E+02
  1 76 1 1.40000000E+02
  1 77 1 1.40000000E+02
  1 78 1 1.40000000E+02
  1 79 1 1.40000000E+02
  1 80 1 1.40000000E+02
  1 81 1 1.40000000E+02
  1 82 1 1.40000000E+02
  1 83 1 1.40000000E+02
  1 84 1 1.40000000E+02
  1 85 1 1.40000000E+02
  1 86 1 1.40000000E+02
  1 87 1 1.40000000E+02
  1 88 1 1.40000000E+02
  1 89 1 1.40000000E+02
  1 90 1 1.40000000E+02
  1 91 1 1.40000000E+02
  1 92 1 1.40000000E+02
  1 93 1 1.40000000E+02
  1 94 1 1.40000000E+02
  1 95 1 1.40000000E+02
  1 96 1 1.40000000E+02
  1 97 1 1.40000000E+02
  1 98 1 1.40000000E+02
  1 99 1 1.40000000E+02
  1 100 1 1.40000000E+02
  1 101 1 1.40000000E+02
  1 102 1 1.40000000E+02
  1 103 1 1.40000000E+02
  1 104 1 1.40000000E+02
  1 105 1 1.40000000E+02
  1 106 1 1.40000000E+02
  1 107 1 1.40000000E+02
  1 108 1 1.40000000E+02
  1 109 1 1.40000000E+02
  1 110 1 1.40000000E+02
  1 111 1 1.40000000E+02
  1 112 1 1.40000000E+02
  1 113 1 1.40000000E+02
  1 114 1 1.40000000E+02
  1 115 1 1.40000000E+02
  1 116 1 1.40000000E+02
  1 117 1 1.40000000E+02
  1 118 1 1.40000000E+02
  1 119 1 1.40000000E+02
  1 120 1 1.40000000E+02
  1 121 1 1.40000000E+02
  1 122 1 1.40000000E+02
  1 123 1 1.40000000E+02
  1 124 1 1.40000000E+02
  1 125 1 1.40000000E+02
  1 126 1 1.40000000E+02
  1 127 1 1.40000000E+02
  1 128 1 1.40000000E+02
  1 129 1 1.40000000E+02
  1 130 1 1.40000000E+02
  1 131 1 1.40000000E+02
  1 132 1 1.40000000E+02
  1 133 1 1.40000000E+02
  1 134 1 1.40000000E+02
  1 135 1 1.40000000E+02
  1 136 1 1.40000000E+02
  1 137 1 1.40000000E+02
  1 138 1 1.40000000E+02
  1 139 1 1.40000000E+02
  1 140 1 1.40000000E+02
  1 141 1 1.40000000E+02
  1 142 1 1.40000000E+02
  1 143 1 1.40000000E+02
  1 144 1 1.40000000E+02
  1 145 1 1.40000000E+02
  1 146 1 1.40000000E+02
  1 147 1 1.40000000E+02
  1 148 1 1.40000000E+02
  1 149 1 1.40000000E+02
  1 150 1 1.40000000E+02
  1 151 1 1.40000000E+02
  1 152 1 1.40000000E+02
  1 153 1 1.40000000E+02
  1 154 1 1.40000000E+02
  1 155 1 1.40000000E+02
  1 156 1 1.40000000E+02
  1 157 1 1.40000000E+02
  1 158 1 1.40000000E+02
  1 159 1 1.40000000E+02
  1 160 1 1.40000000E+02
  1 161 1 1.40000000E+02
  1 162 1 1.40000000E+02
  1 163 1 1.40000000E+02
  1 164 1 1.40000000E+02
  1 165 1 1.40000000E+02
  1 166 1 1.40000000E+02
  1 167 1 1.40000000E+02
  1 168 1 1.40000000E+02
  1 169 1 1.40000000E+02
  1 170 1 1.40000000E+02
  1 171 1 1.40000000E+02
  1 172 1 1.40000000E+02
  1 173 1 1.40000000E+02
  1 174 1 1.40000000E+02
  1 175 1 1.40000000E+02
  1 176 1 1.40000000E+02
  1 177 1 1.40000000E+02
  1 178 1 1.40000000E+02
  1 179 1 1.40000000E+02
  1 180 1 1.40000000E+02
  1 181 1 1.40000000E+02
  1 182 1 1.40000000E+02
  1 183 1 1.40000000E+02
  1 184 1 1.40000000E+02
  1 185 1 1.40000000E+02
  1 186 1 1.40000000E+02
  1 187 1 1.40000000E+02
  1 188 1 1.40000000E+02
  1 189 1 1.40000000E+02
  1 190 1 1.40000000E+02
  1 191 1 1.40000000E+02
  1 192 1 1.40000000E+02
  1 193 1 1.40000000E+02
  1 194 1 1.40000000E+02
  1 195 1 1.40000000E+02
  1 196 1 1.40000000E+02
  1 197 1 1.40000000E+02
  1 198 1 1.40000000E+02
  1 199 1 1.40000000E+02
  1 200 1 1.40000000E+02
  1 201 1 1.40000000E+02
END period  1

