# File generated by Flopy version 3.7.0 on 08/06/2024 at 20:31:50.
BEGIN options
END options

BEGIN dimensions
  NPER  2
END dimensions

BEGIN perioddata
  1.00000000E-05  1       1.00000000
     365.00000000  20       1.00000000
END perioddata

