# File generated by Flopy version 3.7.0 on 08/06/2024 at 20:31:50.
BEGIN options
  SAVE_SPECIFIC_DISCHARGE
END options

BEGIN griddata
  icelltype
    CONSTANT  0
  k
    CONSTANT      50.00000000
END griddata

