# File generated by Flopy version 3.7.0 on 08/06/2024 at 20:31:50.
BEGIN options
END options

BEGIN griddata
  strt
    CONSTANT     140.00000000
END griddata

