# File generated by Flopy version 3.7.0 on 08/06/2024 at 20:31:50.
BEGIN options
END options

BEGIN timing
  TDIS6  confined_aquifer.tdis
END timing

BEGIN models
  gwf6  confined_aquifer.nam  confined_aquifer
END models

BEGIN exchanges
END exchanges

BEGIN solutiongroup  1
  ims6  confined_aquifer_0.ims  confined_aquifer
END solutiongroup  1

